*Heading
** Job name: Elastoplastic Model name: Elastoplastic
** Generated by: Sergio Luarini
*Preprint, echo=NO, model=NO, history=NO, contact=NO
**
** PARTS
**
*Part, name=PART-1
*Node
      1,           0.,          10.
      2,           0.,        9.375
      3,  0.413752705,   9.59977531
      4,  0.600000024,          10.
      5,           0.,          7.5
      6,           0.,        8.125
      7,           0.,         8.75
      8,  0.413752705,   8.97477531
      9,   0.82750541,   9.19955063
     10,    1.0137527,   9.59977531
     11,           0.,        6.875
     12,   0.50283581,   7.20341778
     13,   1.20000005,          10.
     14,  0.555633008,   7.81831837
     15,  0.555633008,   8.44331837
     16,  0.969385743,   8.66809368
     17,   1.32840681,   9.15503216
     18,   1.51465416,   9.55525684
     19,   1.05846882,   7.52173615
     20,           0.,         6.25
** ... 1432 like lines cut
*Element, type=CPS6
  1,    3,    1,    2,  474,  395,  475
  2,    3,    4,    1,  476,  403,  474
  3,    8,    2,    7,  477,  398,  478
  4,    2,    8,    3,  477,  479,  475
  5,    9,    3,    8,  480,  479,  481
  6,    9,   10,    3,  482,  483,  480
  7,    4,    3,   10,  476,  483,  484
  8,   12,    5,   11,  485,  399,  486
  9,   10,   13,    4,  487,  404,  484
 10,   12,   14,    5,  488,  489,  485
 11,    6,    5,   14,  396,  489,  490
 12,    7,    6,   15,  397,  492,  491
 13,   14,   15,    6,  493,  492,  490
 14,    8,    7,   15,  478,  491,  494
 15,    9,    8,   16,  481,  496,  495
 16,   15,   16,    8,  497,  496,  494
 17,    9,   16,   17,  495,  499,  498
 18,    9,   17,   10,  498,  500,  482
 19,   10,   18,   13,  501,  502,  487
 20,   18,   10,   17,  501,  500,  503
** ... 673 like lines cut
*Elset, elset=SET-1, generate
   1,  693,    1
*Elset, elset=SET-2, generate
   1,  693,    1
*Nset, nset=Set-3
 353,
** Section: Section-1-SET-2
*Solid Section, elset=SET-2, material=MATERIAL-1_UMAT
10.,
*End Part
**  
**
** ASSEMBLY
**
*Assembly, name=Assembly
**  
*Instance, name=PART-1-1, part=PART-1
*End Instance
**  
*Nset, nset=SET-1, instance=PART-1-1
 237, 260, 281, 298, 315, 328, 340, 350, 359, 366, 372, 376, 379, 380, 424, 425
 426, 427, 428, 429, 430, 431, 432, 433, 434, 435, 436
*Nset, nset=SET-2, instance=PART-1-1
   1,   2,   5,   6,   7,  11,  20,  23,  24, 395, 396, 397, 398, 399, 400, 401
 402,
*Elset, elset=_SURF-1_S2, internal, instance=PART-1-1
 570, 597, 620, 640, 693
*Elset, elset=_SURF-1_S3, internal, instance=PART-1-1
 657, 671, 681, 688
*Elset, elset=_SURF-1_S2_1, internal, instance=PART-1-1
 570, 597, 620, 640, 693
*Elset, elset=_SURF-1_S3_1, internal, instance=PART-1-1
 657, 671, 681, 688
*Surface, type=ELEMENT, name=SURF-1
_SURF-1_S2_1, S2
_SURF-1_S3_1, S3
*End Assembly
** 
** MATERIALS
** 
*Material, name=MATERIAL-1
*Elastic
70000., 0.2
*Plastic
 243.,0.
2414.,1.
*Material, name=MATERIAL-1_UMAT
*Depvar
    7
*User Material, constants=4
70000.,  0.2, 243.,2171.
** 
** BOUNDARY CONDITIONS
** 
** Name: Disp-BC-1 Type: Symmetry/Antisymmetry/Encastre
*Boundary
SET-1, YSYMM
** Name: Disp-BC-2 Type: Symmetry/Antisymmetry/Encastre
*Boundary
SET-2, XSYMM
** ----------------------------------------------------------------
** 
** STEP: Step-1
** 
*Step, name=Step-1, nlgeom=NO
*Static
0.05, 1.1, 1.1e-05, 0.05
** 
** LOADS
** 
** Name: SURFFORCE-1   Type: Pressure
*Dsload
SURF-1, P, -133.65
** 
** OUTPUT REQUESTS
** 
*Restart, write, frequency=0
** 
** FIELD OUTPUT: F-Output-1
** 
*Output, field
*Node Output
CF, RF, U
*Element Output, directions=YES
LE, PE, PEEQ, PEMAG, S, SDV
*Contact Output
CDISP, CSTRESS
** 
** HISTORY OUTPUT: H-Output-1
** 
*Output, history
*Node Output, nset=PART-1-1.Set-3
U1, 
*NODE PRINT, nset=PART-1-1.Set-3
U1
*End Step
